97
Coordinates from ORCA-job /dev/shm/slurm.malcolms.9850266/9850266/T2/T2_OPT
  C   2.33430349972004      2.15528248232320     -0.69473479723029
  C   2.86926069137701      3.23239354273539     -0.08511004884348
  C   4.27850150244948      3.35971358765990      0.20147294980572
  C   4.80124122572300      4.52675252582614      0.79543780854264
  C   6.16411992548312      4.61288374140835      1.03060137877802
  C   6.98612097957530      3.54765860103285      0.67201331188171
  C   6.38222743981299      2.42279101504598      0.09534977793374
  C   7.17640559093097      1.22927407533823     -0.30172730731389
  C   8.40408333492110      1.35213486974122     -0.96294127243793
  C   9.05039643848874      0.18972709751485     -1.36289396703202
  C   8.46731503973422     -1.04020682437588     -1.08480777093419
  C   7.24765656205702     -1.06326350349545     -0.39545263900062
  C   6.55268944793255     -2.33515440652456     -0.06080505617582
  C   7.25295664981606     -3.55500354092291      0.03103471642817
  C   6.53068857249598     -4.71963181198896      0.31553596125756
  C   5.16909661822598     -4.63666743852984      0.51114787191121
  C   4.54515001058938     -3.35950122126442      0.43972423929429
  C   3.16224774691128     -3.20279342373910      0.68988032248056
  C   2.54352727092074     -1.93648947763923      0.85935145938497
  C   1.16855063726983     -1.75580214153129      1.10412800731831
  C   0.66038441804981     -0.53898529932549      1.65578590177804
  C   -0.68532149928252     -0.35478973690260      1.88767055999716
  C   -1.60556183984099     -1.37439087110843      1.54214097516740
  N   -2.99277366195095     -1.23017596813213      1.67472566407270
  C   -3.87214899519366     -1.58525962123358      0.66093027402478
  C   -3.57806803816757     -1.93495055018807     -0.64909931890236
  C   -4.62999625294715     -2.22605525944153     -1.50207793315760
  C   -5.95717452981914     -2.15312623573202     -1.06455057522040
  C   -6.25181241560939     -1.77123637288366      0.24030171388147
  C   -5.20062131377748     -1.47224025949959      1.11149825135363
  C   -5.12022162257669     -1.00452777993229      2.47447641062563
  C   -6.08523670463924     -0.69402592728134      3.42671691184735
  C   -5.67410836262831     -0.27348352280970      4.68553957536190
  C   -4.31064320608279     -0.17347821054985      4.99395483591718
  C   -3.32692532988753     -0.47150806052701      4.05632025325070
  C   -3.74207204250082     -0.86925661893103      2.78815742963489
  C   -1.11846614670894     -2.58753311538000      1.01527382769169
  C   0.22197656296590     -2.77955656146683      0.80977834405366
  N   5.25412529454513     -2.24777959085610      0.14697316872490
  N   6.63177130706449      0.05347218198428     -0.02496359331033
  N   5.08185107014164      2.34128800167930     -0.12452906349364
  C   0.94093765225489      1.95633994528137     -1.01615434792791
  C   0.51530485230186      0.78559827204063     -1.67753571093191
  C   -0.82285849701539      0.53204979587771     -1.95341886707560
  C   -1.80304096794846      1.45515140113351     -1.55430545051134
  N   -3.18040704058618      1.24259005573354     -1.71692392626699
  C   -4.10402218887864      1.51407977599037     -0.71261020491192
  C   -3.87252011865574      1.86730303125773      0.60992312806110
  C   -4.96470094242874      2.06563053232019      1.43929445997979
  C   -6.27171422086761      1.89308142638236      0.97030168876046
  C   -6.50303526520470      1.49696168538502     -0.34126464772729
  C   -5.41081255883652      1.29377041094078     -1.18930517619266
  C   -5.26923999775115      0.83872455278278     -2.54879277564601
  C   -6.19313456276487      0.44800892691612     -3.51197764256088
  C   -5.73402970372089      0.07235834846159     -4.76785365325240
  C   -4.36389065455936      0.10157572768577     -5.06168758580134
  C   -3.42047679332208      0.47999446245065     -4.11103185543150
  C   -3.88074870421400      0.82479526318823     -2.84252864216727
  C   -1.38722468016108      2.64784308313225     -0.94596995982441
  C   -0.05796458997591      2.89234627398538     -0.68960084892174
  H   3.04131834985434      1.37078668177519     -0.95647822780476
  H   2.23804464626146      4.07246621663313      0.20169856775334
  H   4.13057030861513      5.34492172864102      1.05358184479827
  H   6.59160397192464      5.50261120481955      1.49228072264653
  H   8.05689271744184      3.57018048785859      0.86256100069511
  H   8.81866477982615      2.33294030527198     -1.18856379047283
  H   9.99516886874200      0.24143740442948     -1.90303168575127
  H   8.94124679549862     -1.96218424677073     -1.41432215336221
  H   8.33167623611287     -3.59244823003589     -0.09977932611580
  H   7.04219291965199     -5.67869529070744      0.38830999875288
  H   4.57800199610892     -5.52294204575594      0.73667551996477
  H   2.58673719571238     -4.12120453314534      0.80716012124408
  H   3.18371078395560     -1.05765538984058      0.82479841872695
  H   1.36106464397245      0.25930469953519      1.89725736474757
  H   -1.03830519451022      0.59364215900096      2.29451789555051
  H   -2.55007899103242     -1.94493495812873     -0.98285025737020
  H   -4.42087536271509     -2.48805422880895     -2.53821323858237
  H   -6.75602585413137     -2.36250396303243     -1.77552391524286
  H   -7.28387380314693     -1.67934759256953      0.57459220659356
  H   -7.14138029202211     -0.77399591537609      3.16850171490910
  H   -6.41418229395911     -0.02258012092207      5.44372706441042
  H   -4.01147537698434      0.14460666945919      5.99176370164628
  H   -2.27134233326819     -0.40370553152769      4.31118435587536
  H   -1.82421258372422     -3.38321066804559      0.78549332573116
  H   0.56279771058955     -3.72337909645000      0.39006399690774
  H   1.26944223768737      0.05000242940813     -1.95604117355074
  H   -1.11102599159553     -0.40826729848016     -2.42812040490140
  H   -2.86028561878906      1.95008452265924      0.97722721975534
  H   -4.80018615493314      2.33143126451110      2.48240207689820
  H   -7.10204253391846      2.03545465868823      1.66101031740945
  H   -7.51611220699939      1.32234636161874     -0.70001260096111
  H   -7.25437942987699      0.43121149760322     -3.26132748811534
  H   -6.44055607841271     -0.24212173200369     -5.53419819574222
  H   -4.02610362795693     -0.17899824745799     -6.05837106352259
  H   -2.36183615345190      0.51287705130520     -4.35897330895336
  H   -2.13587822064965      3.39922137726678     -0.70297057730965
  H   0.22056089453907      3.83729040480024     -0.22963690753361
