90
Coordinates from ORCA-job /dev/shm/slurm.malcolms.9693129/9693129/T3/T3_OPT
  O   0.00001353742360      0.84335138990082     -0.00070016418385
  C   0.00005953866328     -0.38415886798060      0.00089891244844
  C   1.16915991879650     -1.28420085211703      0.00955923085966
  C   2.51914170405917     -0.97241385915068      0.01787028814306
  C   3.46950231942400     -2.02766828615623      0.02750686484270
  C   4.89029785268070     -1.80282323035250      0.03430987203147
  C   5.48363519255786     -0.56508818692365      0.01692042167998
  C   6.89191026588939     -0.27579009609587      0.02398951410209
  C   7.31388306370098      1.07276556543412     -0.02786195099205
  C   8.65359558148426      1.41626147922977     -0.03197058394723
  C   9.63704512596146      0.41599419405508      0.02866383008690
  N   10.99602795796473      0.75718235912368      0.03048807128587
  C   11.59437640213537      1.71095836398441      0.85308172441060
  C   11.03348955938296      2.48621042825460      1.87029494450640
  C   11.87528493665923      3.35065164858139      2.56368877932541
  C   13.24329069317906      3.43966922394988      2.26390873513700
  C   13.80103943680683      2.64911555556977      1.26521134750918
  C   12.97654533366513      1.77368637000555      0.55345952290011
  C   13.21949943164876      0.81327860651183     -0.50026674726230
  C   14.35919832108719      0.44149763110043     -1.21819873753405
  C   14.24365626192056     -0.51720815955958     -2.21874296479966
  C   12.99883911718974     -1.09371534266792     -2.51414875666811
  C   11.84910965274896     -0.73996283366487     -1.81437223447291
  C   11.97489015034752      0.20653142290837     -0.79534504258945
  C   9.23979324349152     -0.93087955753880      0.08855125339860
  C   7.89904705148653     -1.26866535299319      0.08135229013013
  C   3.00796949767035     -3.36897038050512      0.02981490375746
  C   1.65248672235537     -3.68133163316642      0.01990948260433
  C   0.72632317268321     -2.63369497053256      0.00932462140850
  C   -0.72604010298656     -2.63376270175956     -0.00168464501078
  C   -1.65213123322086     -3.68148776895442     -0.00953508723953
  C   -3.00763574399776     -3.36924597280429     -0.02019844237340
  C   -3.46926524192031     -2.02797505254194     -0.02132546759002
  C   -4.89007725561758     -1.80325546051045     -0.02859123444276
  C   -5.48350700240835     -0.56552558826329     -0.01417419991427
  C   -6.89180581272268     -0.27635792720358     -0.02187708449312
  C   -7.31389683463789      1.07226731246650      0.02710755421389
  C   -8.65363889138220      1.41565666603511      0.03045916726674
  C   -9.63699785115095      0.41517609163858     -0.02809457540718
  N   -10.99601629428735      0.75622073134488     -0.03071950062578
  C   -11.59437323491245      1.70836720591004     -0.85518360468193
  C   -11.03352202795502      2.48148199575784     -1.87404449575637
  C   -11.87531484493161      3.34456072664559     -2.56913370275549
  C   -13.24328665782114      3.43429376074612     -2.26940848095290
  C   -13.80100329754926      2.64583331865767     -1.26904011954710
  C   -12.97650905969303      1.77180863830308     -0.55556349310557
  C   -13.21942951789227      0.81357335714235      0.50014649756593
  C   -14.35909528203189      0.44332515322729      1.21892171336194
  C   -14.24353694403484     -0.51335215216433      2.22140395216130
  C   -12.99873381122105     -1.08933733661443      2.51788087228810
  C   -11.84903758726947     -0.73708781619697      1.81729088891626
  C   -11.97483514478423      0.20734175664163      0.79635344140928
  C   -9.23962701669046     -0.93178699287558     -0.08512870626096
  C   -7.89885366724710     -1.26944340657343     -0.07717052038561
  C   -2.51897918366395     -0.97263341864294     -0.01448087646723
  C   -1.16897579764076     -1.28430588849075     -0.00540874761172
  H   2.81709863767072      0.07609637406388      0.01865779266429
  H   5.51944393566350     -2.69755350544291      0.05056059017225
  H   4.83345807804968      0.31351898696579     -0.00922413687646
  H   6.55750663378475      1.85979807070596     -0.08503473092713
  H   8.95572218944607      2.46234246905637     -0.10547782644598
  H   9.97514612428071      2.41338162047942      2.12421029571534
  H   11.45900582276117      3.96912842918530      3.36230865893681
  H   13.87433523729889      4.13033498823696      2.82726559886953
  H   14.86896561258174      2.70549581627197      1.04177302291430
  H   15.32438012049462      0.90405569124771     -0.99901542350193
  H   15.12566996118854     -0.81895589596287     -2.78759716549659
  H   12.92588868898662     -1.83314651170873     -3.31509271321837
  H   10.88354704611423     -1.18097212577353     -2.06559290616854
  H   10.00186950433805     -1.70853013022952      0.16512863198720
  H   7.62140535904710     -2.32255237096550      0.14207580696472
  H   3.74812642052710     -4.17289370468689      0.03835885969793
  H   1.32386023702413     -4.72295942257056      0.02075674500069
  H   -1.32343621998033     -4.72309265842608     -0.00769821708227
  H   -3.74773421210470     -4.17324282783680     -0.02663278752654
  H   -5.51915613679502     -2.69807098150194     -0.04257624145186
  H   -4.83339357368966      0.31318972543892      0.00985805678525
  H   -6.55758798929771      1.85948248807905      0.08263625893930
  H   -8.95585363977261      2.46186535843118      0.10174796024966
  H   -9.97520782693732      2.40804081951301     -2.12790555370405
  H   -11.45906768069624      3.96136501226176     -3.36906251657706
  H   -13.87433315820403      4.12384719614021     -2.83412415687699
  H   -14.86890615400953      2.70274817487034     -1.04562569797731
  H   -15.32426578044839      0.90549535304460      0.99887207656300
  H   -15.12552472757909     -0.81388598881119      2.79094039177957
  H   -12.92576555534065     -1.82714334639617      3.32032045863100
  H   -10.88348624099002     -1.17765285324908      2.06933094128272
  H   -10.00164240917203     -1.70965187811181     -0.16011757998959
  H   -7.62110593785392     -2.32342613186835     -0.13570238210066
  H   -2.81699661107520      0.07585471108460     -0.01799213778985
