90
Coordinates from ORCA-job /dev/shm/slurm.malcolms.9693129/9693129/T4/T4_OPT
  O   0.00013174430658      0.95203133642182     -0.00127925920406
  C   0.00012962815078     -0.28796922280523      0.00049514008472
  C   1.16620581226637     -1.18363158142900      0.00982185284792
  C   2.52029783401999     -0.86275260501999      0.01885490464869
  C   3.47558572310261     -1.89721301451162      0.02888103413732
  C   4.90527508411312     -1.64677531109214      0.03721694748193
  C   5.51409134089815     -0.42830867087268      0.01423825425990
  C   6.93970491267113     -0.17790876602448      0.02385973979331
  C   7.40725249548627      1.15295001599564     -0.04284504606281
  C   8.76046585602077      1.45418087298728     -0.04565497610551
  C   9.70726853860230      0.42389392616235      0.03124763253275
  N   11.08419827068260      0.72052636347171      0.03450882586745
  C   11.71707698003825      1.61573191183694      0.88918433588686
  C   11.18028958168985      2.36945680698430      1.93755252133575
  C   12.05219761565930      3.17882906769527      2.66117744239578
  C   13.42263563609159      3.23197179781861      2.36002445570408
  C   13.95432096397478      2.46042769966433      1.32729268414744
  C   13.10109235036673      1.64238402292186      0.58518835219799
  C   13.30382624246990      0.71271384606738     -0.50767490668763
  C   14.42093427770705      0.32062701764553     -1.24675332224712
  C   14.25812300374686     -0.59938659496616     -2.28191195842857
  C   12.98866836441285     -1.11526916168055     -2.58851505916804
  C   11.85820407529643     -0.73877667386996     -1.86794829489439
  C   12.03301022589849      0.16692646798068     -0.81707528351515
  C   9.26862771234882     -0.90662106517683      0.10644195704022
  C   7.91504559072898     -1.19930419307380      0.09805369045014
  C   3.02503415007012     -3.24217503270921      0.03128706996400
  C   1.67129570736655     -3.56531923882037      0.02090958635152
  C   0.72962223127922     -2.53638578245964      0.00954832046099
  C   -0.72935956449409     -2.53640235930380     -0.00218598703767
  C   -1.67103115190548     -3.56536639573707     -0.01061550246724
  C   -3.02476736473061     -3.24224821556098     -0.02185641074628
  C   -3.47532093782898     -1.89728305463000     -0.02321557532201
  C   -4.90501152285924     -1.64691135429222     -0.03209844453755
  C   -5.51391042050499     -0.42842907361142     -0.01227851785481
  C   -6.93955899347908     -0.17821803262938     -0.02237094219376
  C   -7.40729418192790      1.15271554099586      0.04144134830049
  C   -8.76055321415985      1.45375059574663      0.04374131434581
  C   -9.70721386243684      0.42315694976598     -0.03081146819007
  N   -11.08419170007999      0.71956601303782     -0.03456447032138
  C   -11.71721913579721      1.61302062808322     -0.89095653340658
  C   -11.18061975535717      2.36452396562475     -1.94102140803477
  C   -12.05264027097174      3.17242625955475     -2.66614599867056
  C   -13.42301152521091      3.22626340645527     -2.36480534067490
  C   -13.95451401189179      2.45690255937127     -1.33035336910040
  C   -13.10116824235795      1.64036812961822     -0.58672210999728
  C   -13.30369758736028      0.71298981850576      0.50812453975817
  C   -14.42066902376631      0.32249115667884      1.24824648547660
  C   -14.25768518233658     -0.59537311369751      2.28528604031678
  C   -12.98818937131521     -1.11066766198398      2.59269717631981
  C   -11.85785661631293     -0.73572543555567      1.87111274582929
  C   -12.03283734808377      0.16779942528813      0.81839984326449
  C   -9.26838614247103     -0.90745138093934     -0.10317104857689
  C   -7.91476120098911     -1.19991409325120     -0.09429053887604
  C   -2.52004006041730     -0.86279556658371     -0.01618344913596
  C   -1.16594745878155     -1.18365371949373     -0.00628197056561
  H   2.81048252609172      0.18982176034848      0.01984563521453
  H   5.53309783213315     -2.54424694227974      0.06013360187741
  H   4.88553004625486      0.46672629865773     -0.02005028704214
  H   6.67747600911324      1.96426327167841     -0.11129053265080
  H   9.09603743683103      2.49001242683145     -0.13019741727670
  H   10.11922954074747      2.31955498989287      2.18767499200983
  H   11.65866649963993      3.78005259836484      3.48444296698723
  H   14.07872992759674      3.87839535279510      2.94737089880455
  H   15.02400788632357      2.49110296906198      1.10537222255816
  H   15.40729830156400      0.73354241063402     -1.02091043234028
  H   15.12432718900248     -0.91635060578329     -2.86716698704575
  H   12.88079777151527     -1.82314989811683     -3.41397463837938
  H   10.87156566576250     -1.12951885435697     -2.12249083450621
  H   10.00385337306034     -1.70947290508362      0.19544508033400
  H   7.60380285602085     -2.24339095783263      0.16956482844017
  H   3.77053699426476     -4.04182615210943      0.04038171876048
  H   1.35722871438383     -4.61232841639634      0.02204828862614
  H   -1.35696844854622     -4.61237575970038     -0.00879676275302
  H   -3.77027078408236     -4.04192141671838     -0.02865068802781
  H   -5.53279087369297     -2.54447149014106     -0.05252588539613
  H   -4.88541835308768      0.46674441256025      0.01964620543963
  H   -6.67762913059606      1.96428398921488      0.10802643866784
  H   -9.09626257279157      2.48971589255384      0.12604952475882
  H   -10.11961760006814      2.31403978562454     -2.19126384078779
  H   -11.65926013726674      3.77191002262130     -3.49075096069924
  H   -14.07920094590295      3.87149163267296     -2.95335869735658
  H   -15.02415276767248      2.48809437480155     -1.10827272040286
  H   -15.40706282988705      0.73497308022426      1.02174229637467
  H   -15.12378231008201     -0.91108296658315      2.87137645865021
  H   -12.88017743956223     -1.81683668440674      3.41960314211812
  H   -10.87118369853331     -1.12598625214703      2.12626370158752
  H   -10.00351192489369     -1.71059050553009     -0.19039750911321
  H   -7.60336421550906     -2.24409744449794     -0.16365812933928
  H   -2.81021918106543      0.18977556420709     -0.02015022314694
