97
Coordinates from ORCA-job /dev/shm/slurm.malcolms.9869179/9869179/T1/T1_OPT
  C   -0.00008196458086      0.09535572765563     -1.55402115173233
  C   -0.00015290616384     -0.07106894787773     -0.02989691016042
  C   -0.00015002841460      1.29630086347851      0.66367835476749
  C   -1.17767204473649     -0.91911166861396      0.42954635062218
  C   -2.51475827024385     -0.66660159164786      0.29687458280221
  C   -3.47941564058426     -1.59922213266433      0.80493640198747
  C   -4.88015053704827     -1.40228181780714      0.70857255072624
  C   -5.52670585581445     -0.32181373668367      0.13154026316498
  C   -6.94548000192450     -0.12720102898261      0.04439617283705
  C   -7.89660024242570     -1.03996236311605      0.56403686054769
  C   -9.25530023736800     -0.80225821379535      0.46231208866153
  C   -9.73345331624195      0.35280991106081     -0.17658676415952
  N   -11.11416728340453      0.58818100758529     -0.28247763094883
  C   -11.77019014934480      1.75740739147976      0.09254928475940
  C   -11.25719705147047      2.91535671755042      0.68155674559400
  C   -12.15073832008607      3.93862426989608      0.98326127851417
  C   -13.52345256254299      3.81666243428093      0.71581905209147
  C   -14.03239272524219      2.65400792243402      0.14783395435600
  C   -13.15529459764272      1.61158840340856     -0.16528166616776
  C   -13.33783385701489      0.28972628790258     -0.72236308146630
  C   -14.45308784093190     -0.41446847311237     -1.18530936551952
  C   -14.27720199839680     -1.69371526197059     -1.70107342704761
  C   -12.99724832123863     -2.26638166124052     -1.76826529331964
  C   -11.87130492036790     -1.58601556725650     -1.31451620954570
  C   -12.05558349982919     -0.30936396926698     -0.77862693275899
  C   -8.81069819006185      1.26828961492113     -0.70511354352883
  C   -7.45205142488776      1.03358551099384     -0.58847106737596
  C   -2.98834359450087     -2.78397818204080      1.44184779407928
  C   -1.64729939331133     -3.04406871552792      1.57802339541463
  C   -0.70900712943388     -2.10860365924615      1.07119811360959
  C   0.70850051636072     -2.10864802948941      1.07124829522976
  C   1.64669716506200     -3.04409622603737      1.57831706636341
  C   2.98775594511511     -2.78406823479880      1.44230677009669
  C   3.47896913816532     -1.59941993708775      0.80524447491753
  C   4.87967887865408     -1.40274296605744      0.70866965871617
  C   5.52639577102555     -0.32328875280391      0.12977679854484
  C   6.94515986584266     -0.12869608557287      0.04304788366254
  C   7.45207487339747      1.02909796278274     -0.59503748375994
  C   8.81077519830593      1.26334669208612     -0.71190540926539
  C   9.73327296005705      0.35052606015243     -0.17833668721497
  N   11.11401967484663      0.58544573024423     -0.28455302064010
  C   11.76981677565198      1.75645065010705      0.08533789902893
  C   11.25640202902122      2.91744372915142      0.66794396901785
  C   12.14979242180400      3.94207461949508      0.96544635822312
  C   13.52277284166472      3.81855436020412      0.70010216474002
  C   14.03211928085492      2.65296269393653      0.13853998474791
  C   13.15517794061947      1.60912453724545     -0.17024182495573
  C   13.33813510203463      0.28443668809599     -0.72043455607224
  C   14.45379329609712     -0.42221825137510     -1.17862393441302
  C   14.27828874398032     -1.70401999341788     -1.68814255713929
  C   12.99832417924801     -2.27683920593442     -1.75384190678654
  C   11.87198751537593     -1.59404028221140     -1.30475224616341
  C   12.05586316601845     -0.31474307205874     -0.77506656004467
  C   9.25477357804608     -0.80136550536457      0.46604638824731
  C   7.89603668454971     -1.03866167727689      0.56807107991562
  C   2.51439179070830     -0.66669394328464      0.29715960465781
  C   1.17728919011209     -0.91917977842512      0.42963147605251
  H   0.89133429141557      0.65166579021160     -1.88310363875556
  H   -0.89129122575432      0.65195575311700     -1.88317403503185
  H   -0.00021817124019     -0.88353934207749     -2.05518250369078
  H   -0.89137547939236      1.87610122896175      0.37741597437897
  H   0.89119605728448      1.87601646539612      0.37762067664821
  H   -0.00027785812242      1.18092486444555      1.75734076313788
  H   -2.85459263064286      0.24721954588522     -0.19541017086569
  H   -5.49433359347035     -2.19765632197125      1.14202010324597
  H   -4.91954001407496      0.47529123563059     -0.30715184816521
  H   -7.55924871703986     -1.94403539641921      1.07398509820069
  H   -9.96933473318400     -1.50500005452711      0.89637263186911
  H   -10.19441566420311      3.01408254882607      0.90770406445114
  H   -11.77305864979045      4.85494210269690      1.44320056811679
  H   -14.19574333438751      4.64076745120466      0.96421508674720
  H   -15.10255898212428      2.55137077753507     -0.04710486953077
  H   -15.44650940617615      0.03869879013152     -1.14604376861628
  H   -15.13905574812557     -2.25739175838005     -2.06481004932107
  H   -12.87868664267994     -3.26720812246983     -2.19030238601707
  H   -10.87900857654444     -2.03405197384385     -1.38545047407000
  H   -9.17537637025564      2.15727311141331     -1.22330488339220
  H   -6.74541064621463      1.75358683888317     -1.00978037966963
  H   -3.72071334529955     -3.49738144199081      1.82951332634394
  H   -1.30613944330912     -3.95764004734956      2.07017162094122
  H   1.30543510678864     -3.95760464844237      2.07051131978122
  H   3.72005356328758     -3.49746003486747      1.83012921048701
  H   5.49379339394113     -2.19765156489985      1.14306579314141
  H   4.91935090633779      0.47250147261947     -0.31145924345119
  H   6.74566728178620      1.74693410122562     -1.02041199400821
  H   9.17569743432510      2.14978696860843     -1.23426556287899
  H   10.19340255222006      3.01752273639732      0.89246513889178
  H   11.77176025258162      4.86075742806327      1.42035106581286
  H   14.19493030491173      4.64379800596271      0.94505377264951
  H   15.10247437158093      2.54915189516558     -0.05473243888800
  H   15.44722615912745      0.03102810289578     -1.14057864840124
  H   15.14045567150454     -2.26963876072625     -2.04810159768357
  H   12.88007028233957     -3.27975549689139     -2.17097579757113
  H   10.87971044708370     -2.04230453873801     -1.37453292461445
  H   9.96855247947786     -1.50179417349167      0.90424858223591
  H   7.55842431712034     -1.93994546475399      1.08276214005765
  H   2.85433354908864      0.24730410424010     -0.19472152824087
