90
Coordinates from ORCA-job /dev/shm/slurm.malcolms.9692366/9692366/freq/FREQ_OPT
  O   0.00000479578722      0.93423007647553      0.00364429668519
  C   0.00004633012357     -0.27289681613950      0.00565325399519
  C   1.18578680014906     -1.18698414511575      0.01628975801617
  C   2.52434872590762     -0.85962646985474      0.02858384700409
  C   3.48575838216330     -1.89425647156240      0.04036722694601
  C   4.92223792033379     -1.64493511667767      0.05089450432884
  C   5.52722639169455     -0.44024255523494      0.01044089089449
  C   6.96289849431334     -0.18312141235223      0.02219548469082
  C   7.42027207852632      1.13954879561668     -0.10271652099104
  C   8.77555620890953      1.44404598864637     -0.11342230788251
  C   9.72239168590943      0.42516859522015      0.02383971744566
  N   11.09744120869181      0.72227191609207      0.02546582262544
  C   11.72711259743333      1.65083810083174      0.84850966649031
  C   11.18856249825787      2.45590486178424      1.85456805193799
  C   12.05836207922714      3.29013557509446      2.54963777542668
  C   13.43165452175028      3.32335615357524      2.26059657125230
  C   13.96505759017994      2.50767729560130      1.26951082750462
  C   13.11292076960757      1.65986012633516      0.55572732178050
  C   13.32242886415531      0.68943289504896     -0.49497283052248
  C   14.44918198265268      0.26393831928010     -1.20474855121864
  C   14.29895818512194     -0.69662918558477     -2.19822522387164
  C   13.03270580271233     -1.22556332138570     -2.49391813857768
  C   11.89540963396344     -0.81955503191374     -1.80298374063611
  C   12.05475670963930      0.13289734265169     -0.79410309316752
  C   9.28522246280886     -0.89897948846865      0.16407913766010
  C   7.93129166856047     -1.19530972230329      0.15468484489067
  C   3.02520582268080     -3.22486437784676      0.04236738852024
  C   1.66782998604228     -3.55322696495455      0.02883852343661
  C   0.73576495847579     -2.52326231070664      0.01486733081329
  C   -0.73547659267303     -2.52333786650929     -0.00011541544526
  C   -1.66744725687951     -3.55340856938083     -0.01255213114085
  C   -3.02484011944913     -3.22518920913976     -0.02772082336142
  C   -3.48550065359273     -1.89461777803457     -0.02889397146252
  C   -4.92198983381044     -1.64542830924369     -0.04124459512008
  C   -5.52710839499806     -0.44072135294875     -0.00322602300475
  C   -6.96278636751504     -0.18373421142806     -0.01720479104871
  C   -7.42046162728197      1.13900045054413      0.10590319417652
  C   -8.77578878082944      1.44338415962734      0.11430334628359
  C   -9.72232290066965      0.42430880993341     -0.02354963492326
  N   -11.09739528275701      0.72129713784785     -0.02762281919895
  C   -11.72583037977781      1.64902253303986     -0.85255302784651
  C   -11.18573904860577      2.45314830481398     -1.85853661830167
  C   -12.05449542498719      3.28662343477538     -2.55581276359010
  C   -13.42825240083129      3.32000187009963     -2.26900029942882
  C   -13.96316930257566      2.50525345685191     -1.27796488395650
  C   -13.11210322449201      1.65821311299996     -0.56198256207387
  C   -13.32320181954279      0.68877063191452      0.48931083221387
  C   -14.45104565485326      0.26383763704783      1.19768915786075
  C   -14.30232157538744     -0.69580129016007      2.19228936348820
  C   -13.03649745485228     -1.22435909451013      2.49048062700111
  C   -11.89813672156260     -0.81889006354441      1.80098457265675
  C   -12.05595955466205      0.13262533231151      0.79098297892254
  C   -9.28482967208227     -0.89992086728789     -0.16198606213779
  C   -7.93088828413136     -1.19612322033930     -0.15029380514696
  C   -2.52418741762623     -0.85988407551211     -0.01851427645189
  C   -1.18560765725124     -1.18710282504052     -0.00445563645278
  H   2.81219055138591      0.19385431199317      0.03181784832465
  H   5.54266497124771     -2.54615086064669      0.08927246737644
  H   4.90505730994487      0.45886942210624     -0.04433266797986
  H   6.69027909843400      1.94585193037691     -0.21198311998499
  H   9.11036680964756      2.47508873808123     -0.24107455215351
  H   10.12468708760075      2.42864819386921      2.09475088696154
  H   11.66050434358612      3.93036106135255      3.34053959661599
  H   14.08498118804365      3.99190490814866      2.82515441210306
  H   15.03562049009103      2.52375221048876      1.05204402208332
  H   15.43231293743936      0.68553278732490     -0.98256898944003
  H   15.17052677988544     -1.03936110838049     -2.75986056242280
  H   12.93381811057933     -1.97031927747927     -3.28719795390927
  H   10.91356327019177     -1.22675475728835     -2.04890093920994
  H   10.02239328780907     -1.69317299302858      0.29641928028101
  H   7.62152356001147     -2.23539069748350      0.27384149086486
  H   3.76515349639721     -4.02972673341164      0.05359512687270
  H   1.35774308059989     -4.60056957428632      0.02984990668089
  H   -1.35727028044657     -4.60072428012701     -0.01137987535075
  H   -3.76471251696071     -4.03013474151599     -0.03789680799682
  H   -5.54231424018099     -2.54674389179741     -0.07894198672496
  H   -4.90506846839332      0.45850826148051      0.05108724431767
  H   -6.69070515493892      1.94546197150084      0.21557813093692
  H   -9.11088785263047      2.47450703416601      0.24054896216654
  H   -10.12147578047664      2.42575024870139     -2.09698124732414
  H   -11.65542948878458      3.92610924693199     -3.34670438551778
  H   -14.08073518645264      3.98793437195895     -2.83526107803566
  H   -15.03408149076261      2.52144646159070     -1.06223331673217
  H   -15.43385897214765      0.68513591863630      0.97355126629837
  H   -15.17475364682532     -1.03808952382892      2.75285358901608
  H   -12.93881221627564     -1.96838195762580      3.28459704950050
  H   -10.91664789150654     -1.22578906889702      2.04882223087659
  H   -10.02173541324913     -1.69428346677992     -0.29479091252139
  H   -7.62083695222244     -2.23626408441006     -0.26818751777998
  H   -2.81212111403817      0.19356195905855     -0.02408486205912
