80
Coordinates from ORCA-job /dev/shm/slurm.malcolms.9695294/9695294/freq/FREQ_OPT
  C   -3.79028999850990      0.57102189303229      0.39588714229083
  C   -2.90216940610368     -0.24793607908704     -0.20857231022620
  C   -1.45841485841266     -0.14768280670105     -0.13840981502279
  C   -0.73496517724162      0.81314658942218      0.55677361863347
  N   0.60444149544971      0.90206059558798      0.62087826699016
  C   1.39846553772403      0.04442196317511     -0.00065941646103
  C   2.82255118767777      0.25308426183377      0.15049921292551
  C   3.81434738020805     -0.48790171513283     -0.39401878320797
  C   5.24254331548610     -0.25941912206077     -0.22699558746271
  C   5.77628895596596      0.76940125580581      0.57156830551282
  C   7.14511445319287      0.93983128200985      0.70176421179460
  C   8.03261170059600      0.09334499065478      0.02231122470136
  N   9.42117060893666      0.27202515862013      0.15059985384536
  C   10.33746278140372     -0.71373485744327      0.50558267190729
  C   10.11790322848132     -2.04958767797264      0.84840623157374
  C   11.22479584206902     -2.81923818538772      1.19214116105384
  C   12.51988205072484     -2.27826073314281      1.20280046096005
  C   12.73094431422701     -0.94329822342222      0.87794963626254
  C   11.63566480493158     -0.14786110032719      0.52901346229390
  C   11.48932412998004      1.24457230366249      0.16903087316424
  C   12.39345080672324      2.29808939420056      0.00556778386616
  C   11.91522024874250      3.54410496019315     -0.38294883334370
  C   10.54582288051463      3.74111601761515     -0.61940159066848
  C   9.62511328170576      2.70961659230713     -0.46420817515512
  C   10.10838339492686      1.46461079594895     -0.05595641901504
  C   7.52070559502195     -0.93078938609402     -0.78055714110928
  C   6.14764739380583     -1.10489566316322     -0.89176139700497
  C   0.79289583346076     -1.01632176599794     -0.76883811046197
  N   1.39957638302102     -1.97700647950096     -1.46389809326337
  S   0.23342644758918     -2.89352611610712     -2.12721554348236
  N   -1.08153390340728     -2.12154607381457     -1.56847567092475
  C   -0.64646602707969     -1.10155003821601     -0.83020175846898
  C   -5.24212461174430      0.47588086133893      0.32829706824188
  C   -6.02149406695009      1.40081641762919      1.04432940693515
  C   -7.40915440136137      1.35174989782648      1.02610964546053
  C   -8.06443237598016      0.37664711124277      0.26837076502898
  N   -9.46936481419452      0.32374642831392      0.23537689954527
  C   -10.31480633348641      1.38465818456195     -0.07459758852279
  C   -9.99904938836667      2.69093781192771     -0.45422162305325
  C   -11.05268850015171      3.55502574989984     -0.73509350111619
  C   -12.38915481094985      3.13486832570455     -0.64859971842480
  C   -12.69760598047259      1.82862707581953     -0.28696764955695
  C   -11.65753347438180      0.93989138006779      0.00052881388230
  C   -11.61314880273213     -0.45560689382627      0.37531625916061
  C   -12.59485082063315     -1.42049937278086      0.61917915202956
  C   -12.20496023834844     -2.70020512756930      0.99679812972013
  C   -10.84571738252939     -3.01860950249223      1.14260219885793
  C   -9.84891840639973     -2.07714802347775      0.90643151360731
  C   -10.24536272866485     -0.79808426660748      0.51012842656768
  C   -7.30398277702263     -0.54775134548730     -0.46125294077519
  C   -5.91954558556456     -0.50207579600189     -0.42412336805223
  H   -3.41568606004067      1.39847284846962      1.00743209200267
  H   -3.26086147812722     -1.08202132637792     -0.81820066930421
  H   -1.27098569458681      1.58673771347740      1.11641151457786
  H   3.04428315779024      1.11805072682009      0.78139539888123
  H   3.53787015525129     -1.33897941948842     -1.02163560196370
  H   5.10729755087949      1.43832364887877      1.11619268836771
  H   7.54439687148300      1.72427268826353      1.34735389834601
  H   9.11373086155773     -2.47595864171326      0.85611124080671
  H   11.07852738309880     -3.86746837962691      1.46325325059808
  H   13.36617962857492     -2.91210824305536      1.47589528185862
  H   13.73697191913418     -0.51775354202758      0.89877324815348
  H   13.46084144529540      2.14020692523980      0.17690400665904
  H   12.60950767037775      4.37693331368378     -0.51308024019142
  H   10.19182035248511      4.72482540169974     -0.93667776812894
  H   8.56454584157741      2.86945386956718     -0.66396744820890
  H   8.20798173987716     -1.57915509439129     -1.32700164782188
  H   5.75692378906883     -1.90666389910871     -1.52348770875762
  H   -5.52113088095356      2.16670512557626      1.64270656060094
  H   -7.99647834528999      2.06171151310769      1.61127385599950
  H   -8.96313116142413      3.02315663484484     -0.53672381101764
  H   -10.83113548958034      4.58251273728502     -1.03322667406098
  H   -13.19129445315040      3.84065135524054     -0.87445642973893
  H   -13.73718162438748      1.49719489611520     -0.23172378067690
  H   -13.65303934093284     -1.16817906475409      0.51818224810899
  H   -12.96078797847237     -3.46460047178736      1.18915220343852
  H   -10.56065131012456     -4.02676307130806      1.45252181009406
  H   -8.79555636369583     -2.33030990330361      1.03559794998674
  H   -7.81443974545099     -1.29524709461598     -1.07143817084536
  H   -5.35319692703113     -1.23136994375568     -1.00646753323992
