90

F 3.5857969495272592 0.6467603162158849 -1.948324463527166
C 2.915704070687261 0.2996002528027784 -0.8395514060778502
C 1.537644624028867 0.44597315216311995 -0.8602400516081483
F 0.9485202330343776 0.8952020826529133 -1.9751872501161192
C 0.7464930738730537 0.10450145022658078 0.23447925593353514
C -0.7165259829496311 0.259332212781987 0.20249621349139396
C -1.3129201499110523 1.4951351824736465 -0.04451995974094489
F -0.539014471145075 2.5720013819460985 -0.22309859655208036
C -2.6890759177472088 1.630300100306595 -0.07230087260902851
F -3.2040685225272045 2.8480833548977293 -0.30318265874837247
C -3.5648469639471188 0.5497936013140733 0.1350031914061861
C -4.9869355237399935 0.7971762628068803 0.07992221633255239
C -5.977304749231193 -0.10528368453572899 0.204943459620489
C -7.392188284626603 0.18178408982298286 0.13745085343311644
C -7.919883665075424 1.4663640015933055 -0.03957059687830913
C -9.279730124569694 1.6735372610579191 -0.098613739373446
C -10.16559195783412 0.601505279857396 0.019024562948538482
N -11.542514700672744 0.8129952161998474 -0.04227812362033727
C -12.24715566774045 1.7767455989242442 0.6575969616696867
C -11.798456660238038 2.6921234214279055 1.5983934118369196
C -12.731470615649657 3.529990973522254 2.1797372805426787
C -14.081776115663763 3.4580447086205823 1.8466764825800128
C -14.538295883748788 2.5293276845428947 0.9326419945172592
C -13.61937123128096 1.6772215982756877 0.33526569710929394
C -13.741145178853612 0.6042538654473881 -0.6126791919254432
C -14.81640420578874 0.05817648411259597 -1.3004257360920006
C -14.579690062262026 -0.9760954263771339 -2.183967897181954
C -13.288772714537458 -1.4526537644575472 -2.398152921876958
C -12.203033441428907 -0.9248016933044881 -1.7250905512433168
C -12.438658460642651 0.09482224122784069 -0.8144986157436294
C -9.654381122343867 -0.6839561715746384 0.19789589077882414
C -8.293396933389579 -0.8842213434376083 0.2548585139094335
C -2.9465231331609254 -0.6851033990126356 0.38162183509050557
F -3.6783026434260564 -1.7895919381343242 0.590282603916469
C -1.5677728174931773 -0.8225376590532765 0.4165031870191526
F -1.04062263883075 -2.0348814569351092 0.6269055160513672
C 1.4031254522303467 -0.390148835272619 1.360527287317717
F 0.6913289506015278 -0.7015219803008913 2.4499447877592484
C 2.7790548026851267 -0.5295230420698569 1.3801769499856689
F 3.3548511504928915 -0.9995785238676231 2.4977855377116835
C 3.5943001037567113 -0.19477365972527555 0.2843887482968804
C 5.021427234855672 -0.38189491782906154 0.40626908837456543
C 5.957460245798741 -0.15132946762206378 -0.5326534184616213
C 7.378848103109896 -0.3571692830447626 -0.3710434527000704
C 7.981284773887044 -0.7128327456200181 0.8415591119190025
C 9.342700496607904 -0.897440763594029 0.9306823991304881
C 10.154592168388657 -0.7390686576001967 -0.19357051292430277
N 11.532069559181723 -0.9346013440663477 -0.10288973981010613
C 12.50663074567026 -0.08689287212159322 -0.600008783821719
C 12.373931136789297 1.1456375676630637 -1.2226582679294027
C 13.52832834401499 1.8084967617374312 -1.5948385206577158
C 14.788657110105007 1.270233766609066 -1.3474163134791355
C 14.927544568697483 0.05817648411259557 -0.7008857474444409
C 13.781944404315992 -0.6260083609324898 -0.31773609538348163
C 13.559284845506912 -1.8635638321093815 0.37762374427663414
C 14.409176604320832 -2.8371987840904223 0.8846417190633833
C 13.8556725045338 -3.9484614894945986 1.4888749504829086
C 12.47425442267466 -4.103152941365937 1.573092163191446
C 11.608627256826857 -3.147556146305634 1.0750395043900987
C 12.159161623080458 -2.0146261047646727 0.4938431695306892
C 9.568496766660019 -0.3808752049580197 -1.4077107444638597
C 8.20740722223975 -0.18947762529061873 -1.4879285831318378
H -5.236662534892 1.8343496704932494 -0.0901489896283093
H -5.746019089411162 -1.1473731700413687 0.3649088473413584
H -7.261357059199267 2.31435673630472 -0.14162590382657222
H -9.670389397459783 2.6669629488232967 -0.2599765086209187
H -10.75809428559616 2.743216238162193 1.8816843381346178
H -12.40564468451976 4.253654557425895 2.912128996775719
H -14.779048216272896 4.132407254450914 2.320836391956544
H -15.587385269922088 2.459251442876354 0.6883550707926994
H -15.813850447383826 0.44176269675908153 -1.148295394887966
H -15.402026784983857 -1.4170799297349854 -2.7271858474581703
H -13.130902568863165 -2.2496989636804168 -3.109537218619253
H -11.204744029619059 -1.2881211860686632 -1.9165560613560142
H -10.333617953659651 -1.514948217407509 0.3137097509777188
H -7.9101504283243225 -1.883609560622942 0.40204318271637857
H 5.3253994235701505 -0.7575758871798032 1.372483681636951
H 5.671432673239318 0.20695959432358998 -1.5097711824365954
H 7.382385588668325 -0.8289311487360139 1.7310105774896234
H 9.795431622049028 -1.1441017525132893 1.8792049544852147
H 11.403911862595171 1.584627549256661 -1.4001946075267118
H 13.45024450545448 2.767743580762637 -2.084738794649695
H 15.66645087237707 1.8174216897666995 -1.6570024191556907
H 15.904113281105644 -0.35068033644127716 -0.49035458190907666
H 15.479523138666027 -2.725519880589914 0.8006389397176629
H 14.498444575411055 -4.7161555178640535 1.8929331540594774
H 12.069056344157922 -4.991765345577895 2.033982268319524
H 10.539987459852481 -3.29068203544189 1.126622907613963
H 10.186688578090903 -0.2765444422115795 -2.2864539551869445
H 7.7648020497891075 0.080656929658963 -2.435767554987624
