97
Coordinates from ORCA-job /dev/shm/slurm.malcolms.9849014/9849014/freq/FREQ_OPT
  C   2.31465797905376      2.15221894574556     -0.60547934254605
  C   2.86684258474101      3.24320617536030     -0.03823378952353
  C   4.29957381756330      3.38202448710511      0.21807004758895
  C   4.80903148311518      4.57246696627474      0.76555524023824
  C   6.17604223931179      4.67543264487924      0.98969573859886
  C   6.99623198307305      3.59977876943534      0.66606132148310
  C   6.40205308993734      2.44691798567414      0.12865480050529
  C   7.22188399231719      1.25305362453251     -0.22416813492980
  C   8.51968475227761      1.39108208703923     -0.73671245181956
  C   9.22061716623479      0.23825039954218     -1.07115560814137
  C   8.61866535867911     -0.99932516847415     -0.87713833209834
  C   7.32006136787759     -1.04158526335341     -0.34602519157725
  C   6.60960075033294     -2.33365036749257     -0.10804253828000
  C   7.29191050536966     -3.56194109853925     -0.10079868036032
  C   6.56048577106640     -4.72677239583239      0.10388324749909
  C   5.18822955230566     -4.63971786101635      0.30040477872408
  C   4.58839053006676     -3.36853404292984      0.29882928531027
  C   3.15085827957096     -3.22745327685216      0.52961306784459
  C   2.53957054165234     -2.03859678359892      0.70039899162590
  C   1.10871432516743     -1.84369481946891      0.91424101974749
  C   0.62961980728056     -0.62564697815781      1.42335381338869
  C   -0.72894163138052     -0.40578542901889      1.62297323112858
  C   -1.65289542645647     -1.41245483969279      1.32772092907541
  N   -3.03282427009354     -1.22351201592454      1.52820356606437
  C   -4.03112536493632     -1.58220559843543      0.62533386518893
  C   -3.92040962869940     -1.99434933987095     -0.70459771106509
  C   -5.09382920375721     -2.26052531298627     -1.40129283646277
  C   -6.35170918811484     -2.12526127525394     -0.79456789517512
  C   -6.45825682436113     -1.69707930543247      0.52295996213285
  C   -5.29349888467693     -1.41712668154370      1.24248552772734
  C   -5.04196917077391     -0.92813117057332      2.57817361516313
  C   -5.87313253265340     -0.56935896785270      3.64175609691604
  C   -5.29999390215520     -0.11822339588203      4.82577254502790
  C   -3.90503362206089     -0.03817696445403      4.95629148211879
  C   -3.05510208263016     -0.39091237231015      3.91149136323447
  C   -3.63611258597165     -0.82126126291926      2.71741093498600
  C   -1.19020037695023     -2.63559620029991      0.82327278619684
  C   0.16277985284433     -2.83882049658274      0.60971109012022
  N   5.30001253086904     -2.25862779820837      0.09289055037517
  N   6.65206039245232      0.06728582792722     -0.03986745946669
  N   5.09573398545111      2.35224988600558     -0.08353032877231
  C   0.89755128639296      1.94375198628166     -0.87753290542446
  C   0.47050345842114      0.74352025532930     -1.46853621722096
  C   -0.87586799048757      0.48120186794114     -1.69468527854495
  C   -1.84198038436033      1.43388185880512     -1.35716210570817
  N   -3.21061103198922      1.20126563217326     -1.57515956088561
  C   -4.22726121773196      1.49197730045902     -0.66730815469022
  C   -4.14047880991345      1.89651042307835      0.66671184179775
  C   -5.32715444364831      2.09334528324868      1.36380388608259
  C   -6.57536037902958      1.89352304675398      0.75526067225236
  C   -6.65706115084039      1.46879309365278     -0.56529015471003
  C   -5.47823633874162      1.25964209802442     -1.28561620053471
  C   -5.20024895123090      0.79372308344573     -2.62425378692278
  C   -6.01157308008800      0.39347743535033     -3.68824704684426
  C   -5.41604063152110     -0.01370365252069     -4.87707574148105
  C   -4.01940995688768     -0.00703995050267     -5.01185729403710
  C   -3.18915670076400      0.38821017142304     -3.96640342381468
  C   -3.79086172248436      0.77165180740398     -2.76650260331679
  C   -1.42905656602854      2.65037173632676     -0.79400398412830
  C   -0.08847091408424      2.89176015076445     -0.54953406156259
  H   3.00171088833876      1.34329342916158     -0.87857734884200
  H   2.24817150495238      4.09567738223187      0.25716352596111
  H   4.13446058373947      5.39659647871369      1.00775149678129
  H   6.60024859585282      5.58481171393486      1.42208491059461
  H   8.07067580523752      3.63791100355797      0.85281093934556
  H   8.95437177136907      2.37874814424400     -0.90001635143350
  H   10.22516330431826      0.30328031440380     -1.49567411754824
  H   9.14484970812057     -1.91272786314500     -1.15588121413674
  H   8.37245912043996     -3.61035125744362     -0.23714946268605
  H   7.06198847054160     -5.69741025920578      0.11578771425881
  H   4.58296672497472     -5.53371327487355      0.46540965330490
  H   2.58125411878672     -4.16006654940781      0.58698451560637
  H   3.17990566224644     -1.14837119391411      0.68889714973045
  H   1.34068560081037      0.17404070882793      1.64460953097803
  H   -1.07993292170498      0.56374969605199      1.97961031480808
  H   -2.94941696140161     -2.08817734000872     -1.19131412451681
  H   -5.03112686305444     -2.56134990587001     -2.44940726312333
  H   -7.25288062941029     -2.33956305311693     -1.37299948298673
  H   -7.43730953017620     -1.56681014653257      0.98932905567070
  H   -6.95849787791284     -0.64023205577016      3.53925407372886
  H   -5.93740238348364      0.16902037382609      5.66486423235320
  H   -3.47212222815343      0.30440620277590      5.89918151286377
  H   -1.97214973822390     -0.33689511259798      4.02907232493095
  H   -1.90759452683896     -3.42813695542706      0.60407679121733
  H   0.49390367531944     -3.79185956818010      0.19227460021319
  H   1.21363608564034     -0.01645250017218     -1.72151351383998
  H   -1.18298193832919     -0.48012166165339     -2.10820569468416
  H   -3.17766938306092      2.03354713006332      1.15908852344367
  H   -5.28070174945338      2.38810410260551      2.41436939097863
  H   -7.48756240062560      2.05545666173021      1.33351727275248
  H   -7.62713302823931      1.28731571281285     -1.03353407814390
  H   -7.09896315184661      0.39938535329581     -3.58278193189883
  H   -6.03738792393407     -0.33304890282628     -5.71658426809310
  H   -3.56914576242339     -0.31435491651006     -5.95874966397550
  H   -2.10575322497013      0.40214848673639     -4.08962139814242
  H   -2.17577748487854      3.41112358250436     -0.56148159164229
  H   0.19900951697892      3.84681047259525     -0.10567284135234
