80
Coordinates from ORCA-job /dev/shm/slurm.malcolms.9699206/9699206/T1/T1_OPT
  C   -3.76730664126192      0.62559184779421      0.43735346816491
  C   -2.86369671417795     -0.22394999349971     -0.17432488094450
  C   -1.46274272500606     -0.14360388012248     -0.11800476552893
  C   -0.71989428383683      0.86702780111681      0.60424034704320
  N   0.57228796356172      0.96001933545633      0.66801583703305
  C   1.39068179400292      0.05929148328597      0.02248621122137
  C   2.77440273944290      0.27000272822289      0.16929923426605
  C   3.78651700019506     -0.49495891477263     -0.37850995603759
  C   5.19685758858176     -0.26409125879730     -0.21672099523133
  C   5.73847202445241      0.79618200986677      0.54576367684398
  C   7.10583668601389      0.96569342989969      0.67010987349248
  C   7.99344889793504      0.08828118951604      0.02661412703122
  N   9.38003473479445      0.26509757928396      0.14940326217196
  C   10.29644234218578     -0.72027158895902      0.51053783411813
  C   10.07484109556089     -2.04975618083537      0.87620424484179
  C   11.18184757434756     -2.81788330085363      1.22386340692980
  C   12.47874640468681     -2.28106627137562      1.21781879445529
  C   12.69135731312643     -0.95126333057545      0.87231661504104
  C   11.59601786812974     -0.15847381902242      0.51832414324081
  C   11.45236015458892      1.23014235595013      0.14151419944965
  C   12.36096363938493      2.27576434709828     -0.04463446828699
  C   11.88670323128030      3.51813657192334     -0.45031029042136
  C   10.51685500528453      3.71773053148847     -0.68223055552858
  C   9.59200545546624      2.69326838952003     -0.50460032451815
  C   10.07142475590594      1.45317983678566     -0.07730427678444
  C   7.47745825705051     -0.96686639810479     -0.73854842122893
  C   6.10802121125306     -1.13896970434238     -0.84937799373128
  C   0.78896843248673     -1.01267818087906     -0.74240721849959
  N   1.40571801955641     -1.96396002574811     -1.42559128370761
  S   0.23865902642607     -2.91921114171860     -2.10046921531990
  N   -1.08820396613453     -2.12140005333107     -1.53512293991701
  C   -0.65001076912193     -1.10782076495370     -0.80868467813896
  C   -5.19869568587077      0.52077008033951      0.36241852669249
  C   -5.99981175588667      1.45600871126154      1.05573115412542
  C   -7.38249924464702      1.39460701848351      1.02354157087083
  C   -8.02563069736407      0.39453230112083      0.27984140862853
  N   -9.42490298622862      0.32780082315238      0.23619229184981
  C   -10.28233578755685      1.38926841753826     -0.04987861943595
  C   -9.98075911060138      2.70818250066361     -0.39554839990954
  C   -11.04350759178194      3.56541761876992     -0.66480689850083
  C   -12.37476468334508      3.12573798229664     -0.60174810009496
  C   -12.66839037639521      1.80589690888476     -0.27779274543668
  C   -11.61882461980405      0.92511586146893     -0.00239801620120
  C   -11.56123278253132     -0.48129296847537      0.32951689575257
  C   -12.53595800644512     -1.46138181007034      0.53585380601568
  C   -12.13731768124065     -2.74771457191401      0.88165931128705
  C   -10.77673147889102     -3.05578991400771      1.03495320068209
  C   -9.78707963535041     -2.09780415928559      0.83605301931932
  C   -10.19211805498708     -0.81313864026567      0.46769920073878
  C   -7.24836702429267     -0.54035199466571     -0.42364184772591
  C   -5.86781029867442     -0.48178024554092     -0.37866643583345
  H   -3.38682864773572      1.45670413446237      1.03786880322363
  H   -3.24183939840939     -1.05848309219731     -0.77249145409284
  H   -1.28379222624475      1.63178729297479      1.15159932494394
  H   3.00953034826102      1.14008846751165      0.78865067026911
  H   3.49521664490993     -1.35225056374475     -0.98998737304036
  H   5.07153383264504      1.48799200882450      1.06328529553720
  H   7.50641644617831      1.77218761114016      1.28701364029001
  H   9.06986649292732     -2.47345146405364      0.89947081340133
  H   11.03375520365613     -3.86125975549111      1.51209118009404
  H   13.32491094354538     -2.91334554176453      1.49489162735930
  H   13.69845121071476     -0.52784327813531      0.88153915311915
  H   13.42869974666262      2.11451464390176      0.12133413312400
  H   12.58437554526681      4.34506353096950     -0.59856292676713
  H   10.16551792248206      4.69732021937551     -1.01478119272324
  H   8.53175419519668      2.85554271133448     -0.70353045296165
  H   8.16348936442876     -1.63677974382341     -1.25995059705856
  H   5.71420292788764     -1.96003321747943     -1.45359133251863
  H   -5.51100415526080      2.23545681362998      1.64597565618118
  H   -7.98062049039353      2.10869437600176      1.59225304621296
  H   -8.94961136467499      3.05728954961157     -0.46467217801391
  H   -10.83256433479124      4.60244661407777     -0.93619924388836
  H   -13.18431711144542      3.82600227070871     -0.81799422028154
  H   -13.70346318405396      1.45796571954571     -0.24418084138848
  H   -13.59544372538752     -1.21600189978119      0.43174537472331
  H   -12.88730202909053     -3.52462044382617      1.04431885215241
  H   -10.48415909401565     -4.06856203624278      1.32178760001727
  H   -8.73379249153210     -2.34534854693415      0.97482031633274
  H   -7.74578557125049     -1.30269828289181     -1.02586893005063
  H   -5.29219291964920     -1.21625439722464     -0.94449995198183
