97
Coordinates from ORCA-job /dev/shm/slurm.malcolms.9869179/9869179/T3/T3_OPT
  C   0.00020782403516      0.06487981694176     -1.55569185944949
  C   -0.00013551990568     -0.09114560890389     -0.03106697076679
  C   -0.00036827404047      1.28068126082528      0.65229101332904
  C   -1.17786894924851     -0.93608520871300      0.43403851755254
  C   -2.52230450559414     -0.67961392123071      0.29839824145120
  C   -3.48029405961927     -1.59824330366919      0.80737509001901
  C   -4.91087830731178     -1.38840900993584      0.70449219842568
  C   -5.54631877837057     -0.33227093539920      0.12476782920509
  C   -6.97391708863642     -0.13086571203391      0.03739058751726
  C   -7.92866089740659     -1.03300376415193      0.58037373155126
  C   -9.28508528696871     -0.79701892641770      0.47810199943101
  C   -9.76341717821900      0.35206471535392     -0.17804092224634
  N   -11.14591417953144      0.59080900403756     -0.28308179060804
  C   -11.79694794897704      1.75550312050553      0.10043184901286
  C   -11.27103838941245      2.90409057229815      0.69865413295285
  C   -12.15641679286843      3.93350006928738      1.00426914179173
  C   -13.52878191973875      3.82228263945166      0.73477323749440
  C   -14.05061254965667      2.66471089143525      0.15871841718100
  C   -13.18385412022125      1.62016855149788     -0.16049265195247
  C   -13.37003203798027      0.29939579150097     -0.72605387725955
  C   -14.48036526025670     -0.40302428352714     -1.19304848159803
  C   -14.29828645120029     -1.68284517536228     -1.71541638633388
  C   -13.01853132895258     -2.25362280016071     -1.78522408523566
  C   -11.89410960418298     -1.57232509178933     -1.32866576634526
  C   -12.08599504826008     -0.29865459264516     -0.78598360006695
  C   -8.83767892554524      1.26053682925054     -0.72787825433084
  C   -7.48145333931167      1.01929151377824     -0.61552095374159
  C   -3.00413171737125     -2.76956144496943      1.44719242931503
  C   -1.65450919634621     -3.03835057616491      1.58901880103316
  C   -0.71750715895419     -2.11653401872562      1.08067198111803
  C   0.71695110719534     -2.11646749830942      1.08097848413838
  C   1.65381683152711     -3.03811288226219      1.58988508880059
  C   3.00347611675289     -2.76917037231317      1.44869479792169
  C   3.47980262577282     -1.59788627640507      0.80893983014839
  C   4.91041328172324     -1.38806942287286      0.70636738069973
  C   5.54603878997372     -0.33376086105321      0.12352496791746
  C   6.97366473934266     -0.13232106308864      0.03662623575743
  C   7.48156884670918      1.01389193816733     -0.62290263570493
  C   8.83785516453339      1.25466135019015     -0.73558795574467
  C   9.76327271667199      0.34976233792886     -0.17935890557563
  N   11.14582167568357      0.58795211009834     -0.28485797368046
  C   11.79656577120995      1.75497990490062      0.09202261168163
  C   11.27018259722759      2.90733158799734      0.68252887006129
  C   12.15535049208280      3.93856978536160      0.98254310243066
  C   13.52796711443896      3.82557330740541      0.71507310548735
  C   14.05025037141496      2.66437993391968      0.14677517963285
  C   13.18371033185895      1.61792881224703     -0.16672212284239
  C   13.37034677422257      0.29364348329282     -0.72385839217446
  C   14.48107403088550     -0.41172388330724     -1.18543865178292
  C   14.29940232432960     -1.69475139784959     -1.70002800344887
  C   13.01967250744837     -2.26587825511500     -1.76748354896042
  C   11.89486973127313     -1.58169180756537     -1.31622370849793
  C   12.08632962891603     -0.30468724589636     -0.78127699526471
  C   9.28455692558554     -0.79517025405818      0.48373510010576
  C   7.92808340346286     -1.03069203704997      0.58638686495554
  C   2.52195012140962     -0.67929234323971      0.29964590841012
  C   1.17747917215596     -0.93596875784700      0.43455488394211
  H   0.89137890069481      0.61879228338594     -1.88982909665910
  H   -0.89079641084069      0.61881266189215     -1.89024035339803
  H   0.00031238141692     -0.91740814238009     -2.04997420081791
  H   -0.89135766213386      1.85940464983604      0.36270327612021
  H   0.89071810577837      1.85948876766141      0.36317050104474
  H   -0.00064821176062      1.17307103697097      1.74665804404510
  H   -2.85749936456436      0.23316142790923     -0.19981242807117
  H   -5.52069210782016     -2.18022430683092      1.15118086059632
  H   -4.94154901689679      0.45945857942784     -0.32828868269855
  H   -7.59043002719928     -1.92635656561512      1.10779601432178
  H   -9.99809605806980     -1.48992576789030      0.92996244315128
  H   -10.20741020807850      2.98636383285487      0.92658608253848
  H   -11.77270086109271      4.84385679606841      1.47047819817122
  H   -14.19541256315078      4.64926062334213      0.98857212002418
  H   -15.12212524988922      2.57413258823381     -0.03403110825195
  H   -15.47578856253790      0.04553949549737     -1.15536963276210
  H   -15.15894948358924     -2.24568137143301     -2.08307657382973
  H   -12.89820957839667     -3.25182780647040     -2.21236035121187
  H   -10.89848612843518     -2.01237346377485     -1.40035870765575
  H   -9.20062122806971      2.14001525612322     -1.26341930502561
  H   -6.77450902577057      1.72792395919161     -1.05489409094497
  H   -3.73850197594783     -3.47835820617339      1.83965081783477
  H   -1.32191186137772     -3.95095583052677      2.08871348532191
  H   1.32108610670049     -3.95069190073087      2.08953898600826
  H   3.73774467993924     -3.47786231815302      1.84153249801277
  H   5.52010396383719     -2.17846536677600      1.15573474030177
  H   4.94144281994080      0.45598589481312     -0.33321173219153
  H   6.77489310986914      1.71962578127709     -1.06734294232876
  H   9.20110302129162      2.13083776666627     -1.27631055558169
  H   10.20634556581924      2.99113932151840      0.90892403351228
  H   11.77124906451608      4.85185401104279      1.44267014654975
  H   14.19441585291833      4.65407688555738      0.96433294878740
  H   15.12193747634055      2.57250276502335     -0.04438289801280
  H   15.47648607076268      0.03701685425266     -1.14960942256275
  H   15.16037132056458     -2.25991073617783     -2.06338228664526
  H   12.89968406039811     -3.26670980537954     -2.18852418103378
  H   10.89929034027049     -2.02213482460332     -1.38609710527284
  H   9.99728261986753     -1.48498630811922      0.94074695180837
  H   7.58952864998992     -1.92043813370964      1.11966874528235
  H   2.85728507848575      0.23376205233641     -0.19796027455123
