97
Coordinates from ORCA-job /dev/shm/slurm.malcolms.9869179/9869179/T4/T4_OPT
  C   0.00003165719072     -0.06318502899129     -1.57733099819410
  C   -0.00004995190687     -0.06511946491078     -0.04592657191697
  C   0.00004436741926      1.36715078865051      0.49583731354190
  C   -1.17881151803639     -0.85906668143470      0.50131214971414
  C   -2.52257310641095     -0.61345867784176      0.33847656971357
  C   -3.48649396724338     -1.47540036367116      0.93472738492196
  C   -4.90204060338881     -1.27903950031176      0.81275882157019
  C   -5.54881139156050     -0.28266824505676      0.12904767000678
  C   -6.97550742816056     -0.10265950108712      0.03135115172663
  C   -7.91903675546180     -0.95072483781633      0.66521415552587
  C   -9.28140398261750     -0.73522996416677      0.55145507992371
  C   -9.76591766150332      0.33355879573935     -0.21284581454221
  N   -11.16542709553736      0.55177599858720     -0.32981533982010
  C   -11.84601740097710      1.65595207749844      0.14141405431705
  C   -11.34248349359725      2.76433803640023      0.83087483256355
  C   -12.25088847988244      3.74888415100377      1.20751302719407
  C   -13.61701354541464      3.63201906046436      0.91211623974970
  C   -14.11401438274653      2.51554662757374      0.23189087363109
  C   -13.22745653450316      1.51664406532076     -0.15787075916816
  C   -13.36855189343737      0.24573066924588     -0.84443582143046
  C   -14.44183654567484     -0.45127403633477     -1.39021026937359
  C   -14.20307275179495     -1.68252326361583     -2.00927051953215
  C   -12.90637082525799     -2.21103163305583     -2.09016907226442
  C   -11.81476323202425     -1.53459490909977     -1.55432245177737
  C   -12.06346778057823     -0.30871866343969     -0.92748888469639
  C   -8.86154326686663      1.18648600137388     -0.85688333593433
  C   -7.49939214898405      0.97065696399812     -0.72811064889610
  C   -3.00560272148935     -2.57868787094845      1.68804222606059
  C   -1.65591495260932     -2.83000975358395      1.85432921431909
  C   -0.72079850982852     -1.96630433778469      1.25943942481434
  C   0.72022960212754     -1.96643275648071      1.25951284640461
  C   1.65513180880514     -2.83034222685487      1.85442786884163
  C   3.00488727567653     -2.57929092518583      1.68823290739925
  C   3.48604346784057     -1.47605697534407      0.93503009688864
  C   4.90164508657044     -1.27995783526529      0.81315467659978
  C   5.54861688416108     -0.28321015690275      0.13019453636611
  C   6.97535052356913     -0.10364558230758      0.03223456149183
  C   7.49937841343163      0.97037085350503     -0.72613179148885
  C   8.86157399399769      1.18570067922047     -0.85528384399420
  C   9.76583100852596      0.33154808414347     -0.21271289347565
  N   11.16540063634017      0.54911991273923     -0.33024989489935
  C   11.84695696091041      1.65220712003564      0.14211412203071
  C   11.34454485862165      2.75980755992581      0.83364580408746
  C   12.25376775467607      3.74330854576010      1.21104729893471
  C   13.61959419594921      3.62617629954971      0.91437821983618
  C   14.11546671115204      2.51048929035557      0.23204324651371
  C   13.22807449191884      1.51264098070838     -0.15852850242725
  C   13.36792941746230      0.24272924765819     -0.84720688293318
  C   14.44036855635780     -0.45395544946206     -1.39505345888189
  C   14.20041400793936     -1.68407973362784     -2.01588533461300
  C   12.90336887613586     -2.21179399247527     -2.09647581421938
  C   11.81258359742640     -1.53565570638195     -1.55858183524386
  C   12.06248196544152     -0.31090070471813     -0.93003716872255
  C   9.28117458271720     -0.73788469143073      0.55058407833469
  C   7.91875602379486     -0.95287109013289      0.66471736077484
  C   2.52233734749207     -0.61391852599709      0.33872596137774
  C   1.17851459515621     -0.85926951257327      0.50143685319834
  H   0.89078803784456      0.45342655165092     -1.96795344038409
  H   -0.89068218528546      0.45343205536997     -1.96804268299779
  H   0.00004720308559     -1.09008652663191     -1.97043170970543
  H   -0.89059370276769      1.91579984099015      0.15136159442213
  H   0.89074627230217      1.91568527756078      0.15134202460788
  H   0.00005642652374      1.37033640580712      1.59540369414361
  H   -2.85295957783789      0.24697213949185     -0.24812372020224
  H   -5.50965715112166     -2.02443848189150      1.33613941180278
  H   -4.95103739300710      0.46262710347077     -0.40342357758421
  H   -7.57189574627789     -1.79051606024085      1.26881238831084
  H   -9.98661557750375     -1.39176471042505      1.06621812420448
  H   -10.27945806820920      2.84430866841145      1.06306308502902
  H   -11.89080019969300      4.62758667065892      1.74698771042149
  H   -14.30332954202829      4.42286909391623      1.22197186745169
  H   -15.18117879679236      2.43063109350652      0.01467274725645
  H   -15.45466729996440     -0.04522297030857     -1.33996837493193
  H   -15.03802833879850     -2.23927515226472     -2.43981348463284
  H   -12.74706691675291     -3.17108313447589     -2.58588282537561
  H   -10.80227601386882     -1.93592062559471     -1.61884645523490
  H   -9.23595897769231      2.01272357551859     -1.46514220787022
  H   -6.80323008271288      1.64415071051528     -1.23430125381318
  H   -3.73759279001776     -3.24686162530365      2.15012055118693
  H   -1.32665108732286     -3.68949104485086      2.44279378382610
  H   1.32565237635818     -3.68976407737349      2.44285845454208
  H   3.73671214517628     -3.24763511833098      2.15032675606745
  H   5.50910293861809     -2.02586819308756      1.33599160527596
  H   4.95098569411858      0.46287195810978     -0.40133444813473
  H   6.80330068429651      1.64484700884166     -1.23112851635054
  H   9.23611538239267      2.01254184034939     -1.46264373429668
  H   10.28174147071108      2.83998126888343      1.06678260696192
  H   11.89456979110330      4.62138482800806      1.75213355860832
  H   14.30657141149037      4.41619468681705      1.22489008010045
  H   15.18241021353148      2.42535401014988      0.01382825579284
  H   15.45345919934558     -0.04852491534309     -1.34503843530459
  H   15.03469795803617     -2.24056232668551     -2.44807579828331
  H   12.74313695961931     -3.17097393656403     -2.59357652972070
  H   10.79983120379848     -1.93636143426711     -1.62279795754824
  H   9.98633469605095     -1.39537066971689      1.06420157669946
  H   7.57147900302604     -1.79316613012458      1.26753671058305
  H   2.85293344644708      0.24642616606561     -0.24788207406726
